test/test_files/validation_tests/case6470rte_resqlim.m
function mpc = case6470rte_resqlim
%CASE6470RTE_RESQLIM

%% MATPOWER Case Format : Version 2
mpc.version = '2';

%%-----  Power Flow Data  -----%%
%% system MVA base
mpc.baseMVA = 100;

%% bus data
%    bus_i    type    Pd    Qd    Gs    Bs    area    Vm    Va    baseKV    zone    Vmax    Vmin
mpc.bus = [
    1    1    0    0    0    0    1    0.976915057    -12.8901713    45    1    1    0.888889;
    2    1    0    0    0    0    1    1.02639723    -12.8305366    63    1    1.06349    0.936508;
    3    1    12.5    -0.7    0    0    1    1.00497486    -13.8240011    63    1    1.07937    0.952381;
    4    1    44.7    -0.9    0    0    1    1.0441661    -12.9000004    90    1    1.08889    0.933333;
    5    1    12    0.1    0    0    1    1.01543627    -44.8573252    63    1    1.06349    0.952381;
    6    1    13    4.3    0    0    1    1.0343387    -21.0645678    63    1    1.07937    0.920635;
    7    1    1.2    0.8    0    0    1    1.04586579    -23.323222    63    1    1.07937    0.920635;
    8    1    25.8    4.9    0    0    1    1.06125502    -9.01290041    225    1    1.08889    0.888889;
    9    1    12.9    0    0    0    1    1.04276916    -19.5815563    63    1    1.06349    0.936508;
    10    1    0    0    0    0    1    1.03387785    -12.9636348    90    1    1.07778    0.922222;
    11    1    28.8    1.1    0    0    1    1.03387763    -12.9636324    90    1    1.07778    0.922222;
    12    1    0    0    0    0    1    1.01222138    1.57792208    63    1    1.07937    0.952381;
    13    1    0    0    0    0    1    1.05925782    -4.95231786    380    1    1.10263    1.05526;
    14    1    51.5    1.9    0    0    1    1.06254055    -23.8293094    90    1    1.07778    0.977778;
    15    1    0    0    0    0    1    1.00253316    -27.1250965    63    1    1.07937    0.920635;
    16    1    13.8    4.1    0    0    1    1.03163522    -30.0821054    63    1    1.07937    0.920635;
    17    1    13.1    0.2    0    0    1    1.04634658    -29.095116    90    1    1.06667    0.977778;
    18    1    0    0    0    0    1    0.943856585    -6.12205462    45    1    1    0.888889;
    19    1    1    0    0    0    1    1.01817266    -21.3900022    63    1    1.06349    0.936508;
    20    1    0.9    -21.5    0    0    1    0.944848874    -6.15190522    45    1    1    0.888889;
    21    1    8.3    -3.3    0    0    1    1.04016862    -20.1980974    90    1    1.06667    0.977778;
    22    1    18    1.1    0    0    1    1.01377777    -11.001694    63    1    1.07937    0.952381;
    23    1    19.2    3.4    0    0    1    1.01170919    -10.0390006    63    1    1.06349    0.936508;
    24    1    16.1    -1.6    0    0    1    1.04092036    -12.223624    90    1    1.11111    0.955556;
    25    1    59.9    -3.2    0    0    1    1.07235084    -8.3239968    90    1    1.1    0.944444;
    26    1    35.1    8.1    0    0    1    1.02279365    -21.8780507    90    1    1.06667    0.977778;
    27    1    0    0    0    0    1    1.06692184    -17.5067345    225    1    1.08444    1.00444;
    28    1    0.7    0.2    0    0    1    1.02238763    -19.0057178    63    1    1.07937    0.952381;
    29    1    60.1    2.7    0    0    1    1.00846368    -24.7377896    63    1    1.06349    0.968254;
    30    1    33.5    -0.9    0    0    1    1.03462904    -13.0753962    90    1    1.08889    0.933333;
    31    1    0    0    0    0    1    1.02732432    -9.67233526    63    1    1.06349    0.936508;
    32    1    0    0    0    0    1    1.03658393    -4.72525682    150    1    1.10667    0.9;
    33    1    0    0    0    0    1    1.05464414    -7.39558304    225    1    1.08889    0.933333;
    34    1    0    0    0    0    1    1.05400324    -6.507012    225    1    1.08889    0.933333;
    35    1    0    0    0    0    1    1.07385584    -6.06052463    380    1    1.10526    1.03947;
    36    1    0    0    0    0    1    1.07961698    -5.22827789    380    1    1.10526    1.03947;
    37    1    3.2    4.3    0    0    1    1.00747154    -25.5103801    63    1    1.07937    0.920635;
    38    1    6    -2    0    0    1    1.05034423    -12.4666728    63    1    1.09524    0.936508;
    39    1    41    -3.3    0    0    1    1.03815728    -32.7420938    90    1    1.07778    0.977778;
    40    1    32.6    0.5    0    0    1    1.05907827    -21.9906395    90    1    1.07778    0.977778;
    41    1    0    0    0    0    1    1.07978894    -18.0203397    225    1    1.08889    1.00444;
    42    1    0    0    0    0    1    1.12048941    5.71846191    63    1    1.13259    0.952381;
    43    1    3.6    2    0    0    1    1.04551853    -18.0452637    90    1    1.07778    0.977778;
    44    1    13    -0.7    0    0    1    1.02354529    -45.2436506    63    1    1.06349    0.952381;
    45    1    3.9    1.7    0    0    1    1.00802437    -28.9434556    90    1    1.06667    0.977778;
    46    1    0    0    0    0    1    1.0124262    -16.82632    63    1    1.06349    0.936508;
    47    1    0    0    0    0    1    1.01472503    -14.645547    63    1    1.06349    0.936508;
    48    1    36.5    3.4    0    0    1    1.03395599    -12.9627238    90    1    1.07778    0.922222;
    49    1    8.8    -1.7    0    0    1    1.01807707    -16.1668379    63    1    1.06349    0.936508;
    50    1    0    0    0    0    1    1.06404252    -15.7302483    63    1    1.07012    0.936508;
    51    1    0    0    0    0    1    1.05456758    -11.2462403    225    1    1.08889    0.933333;
    52    1    5    2.4    0    0    1    1.03516953    -30.6766774    90    1    1.06667    0.977778;
    53    1    2.5    -0.5    0    0    1    1.01713495    -17.446882    63    1    1.04762    0.952381;
    54    1    -0.4    -0    0    0    1    1.03765861    -15.7122107    90    1    1.06667    0.977778;
    55    1    37.6    6.7    0    0    1    1.06937639    -18.8224194    225    1    1.08889    1.00444;
    56    1    52.1    13.5    0    0    1    1.07694742    -15.3608605    225    1    1.08889    1.00444;
    57    1    0    0    0    0    1    1.04628693    -23.677928    63    1    1.07937    0.920635;
    58    1    130.6    30.1    0    0    1    1.06917878    -18.8393691    225    1    1.08889    1.00444;
    59    1    5.1    1.3    0    0    1    1.0123025    -11.8437658    63    1    1.07937    0.952381;
    60    1    0    0    0    0    1    1.02626784    -5.62203487    63    1    1.07937    0.952381;
    61    1    39.5    9.7    0    0    1    1.031292    -8.18047658    63    1    1.07937    0.952381;
    62    1    0    0    0    0    1    1.01207706    -5.93165203    63    1    1.07937    0.952381;
    63    1    15.8    2    0    0    1    1.01097587    1.67580557    63    1    1.07937    0.952381;
    64    1    62.4    1    0    0    1    1.07386682    -6.71573733    225    1    1.08889    0.888889;
    65    1    11    2.8    0    0    1    1.04304481    -8.73322535    63    1    1.07937    0.952381;
    66    1    13.2    -7.9    0    0    1    1.02746087    -25.633745    63    1    1.06349    0.936508;
    67    1    0    0    0    0    1    1.04366499    -19.2642314    63    1    1.07937    0.920635;
    68    1    48.1    -0.1    0    0    1    1.01267075    -16.2993932    63    1    1.06349    0.936508;
    69    1    19.3    -2.7    0    0    1    1.04041981    -49.3299796    63    1    1.06349    0.952381;
    70    1    10.6    2.7    0    0    1    1.01490468    2.22865169    63    1    1.07937    0.952381;
    71    1    62.4    14.9    0    0    1    1.02681714    -19.6304592    63    1    1.04762    0.952381;
    72    1    0    0    0    0    1    1.08807642    -12.0358579    225    1    1.09027    1.00444;
    73    1    0    0    0    0    1    1.08805365    -12.0364609    225    1    1.09025    1.00444;
    74    1    50.4    -9.9    0    0    1    1.07413515    -6.59404049    225    1    1.08889    0.888889;
    75    1    22.3    1.8    0    0    1    1.05895282    -15.1355597    90    1    1.0673    0.977778;
    76    1    2.6    -0.4    0    0    1    1.07651863    4.91197919    225    1    1.08923    0.986667;
    77    1    36.8    -0.4    0    0    1    1.0169476    -16.0545255    63    1    1.06349    0.936508;
    78    1    0    0    0    0    1    1.01844477    -24.6902159    63    1    1.07937    0.920635;
    79    1    0    0    0    0    1    1.02332636    -15.7592333    63    1    1.04762    0.952381;
    80    1    32.3    7.3    0    0    1    1.07787075    -15.6188391    225    1    1.08889    1.00444;
    81    1    36.3    9.9    0    0    1    1.07788193    -15.6189565    225    1    1.08889    1.00444;
    82    1    11.7    1.6    0    0    1    1.01668253    -17.6636229    63    1    1.06349    0.936508;
    83    1    77.5    26.4    0    0    1    1.06072297    -18.0289523    225    1    1.08889    1.00444;
    84    1    -1.6    -1.2    0    0    1    1.01457575    -12.7630712    63    1    1.06349    0.936508;
    85    1    2.1    -2.1    0    0    1    1.03340374    -18.5335538    63    1    1.06349    0.936508;
    86    1    48.9    3.6    0    0    1    1.02037987    -38.5214284    90    1    1.06667    0.977778;
    87    1    0    0    0    0    1    1.01874198    1.41446816    63    1    1.07937    0.952381;
    88    1    13.5    -0.1    0    0    1    1.0154329    -21.6062126    63    1    1.06349    0.936508;
    89    1    25.4    0.8    0    0    1    1.03756012    -20.7805001    90    1    1.07778    0.977778;
    90    1    0.4    -1.4    0    0    1    0.942476579    -6.9098112    45    1    1    0.888889;
    91    1    1    0    0    0    1    0.943248259    -6.20627379    45    1    1    0.888889;
    92    1    28.6    3.2    0    0    1    1.00972983    -20.2789048    63    1    1.06349    0.968254;
    93    1    2.1    -2.5    0    0    1    0.958796742    -8.61712121    45    1    1    0.888889;
    94    1    17.5    -4.3    0    0    1    1.04368442    -19.6302102    90    1    1.06667    0.977778;
    95    1    46.5    7.6    0    0    1    1.03093654    -30.3994511    90    1    1.06667    0.977778;
    96    1    1.5    -0.7    0    0    1    1.03793332    -10.9790152    63    1    1.06349    0.936508;
    97    1    56.4    0.9    0    0    1    1.06511168    -25.6370963    63    1    1.07937    0.920635;
    98    1    7.4    -1.3    0    0    1    1.03796632    -15.3262868    63    1    1.07937    0.952381;
    99    1    26.9    3.1    0    0    1    1.0395011    -7.74766887    63    1    1.07937    0.952381;
    100    1    53.3    8.6    0    0    1    1.01017192    -16.6694106    63    1    1.06349    0.936508;
    101    1    17.7    0.5    0    0    1    1.00681271    -13.1819795    63    1    1.06349    0.936508;
    102    3    0    0    0    0    1    1.026    -20.3832518    63    1    1.07937    0.952381;
    103    1    18    -1.1    0    0    1    1.02691527    -6.36541063    63    1    1.07937    0.952381;
    104    1    0    0    0    0    1    1.06755129    -3.55992447    225    1    1.08889    0.986667;
    105    1    35.5    1    0    0    1    1.05569555    -6.09681251    225    1    1.08889    0.888889;
    106    1    49.8    7.5    0    0    1    1.05497883    -10.2151732    90    1    1.1    0.944444;
    107    1    77.6    8.1    0    0    1    1.05593152    -27.7564261    225    1    1.08444    1.00889;
    108    1    12.6    -0.4    0    0    1    1.06057429    -15.7575418    90    1    1.07778    0.977778;
    109    1    68.7    10.9    0    0    1    1.03791739    -14.3589858    63    1    1.06349    0.936508;
    110    1    0    0    0    0    1    1.02471349    -10.2458899    225    1    1.08889    0.933333;
    111    1    36.5    -7.9    0    0    1    1.00490279    -23.1214766    63    1    1.06349    0.968254;
    112    1    0    0    0    0    1    1.03087225    -19.3860653    63    1    1.04762    0.952381;
    113    1    0    0    0    0    1    1.07120053    -16.6168978    225    1    1.08889    1.00444;
    114    1    10.8    -0    0    0    1    1.04228402    -14.4109508    63    1    1.06349    0.936508;
    115    1    0    0    0    0    1    1.05940007    -4.9536105    380    1    1.10526    1.05263;
    116    1    0    0    0    0    1    1.05926699    -4.95240124    380    1    1.10526    1.05263;
    117    1    15.4    -1    0    0    1    1.01143617    -18.4164378    63    1    1.07937    0.952381;
    118    1    2    0.8    0    0    1    1.06122895    -14.8651326    90    1    1.06958    0.977778;
    119    1    37.2    5.3    0    0    1    1.02071506    -10.120787    63    1    1.06349    0.936508;
    120    1    17    -3.2    0    0    1    1.01936079    -9.09874678    63    1    1.06349    0.936508;
    121    1    17.6    3.9    0    0    1    1.02792782    -24.370206    63    1    1.07937    0.920635;
    122    2    0    0    0    0    1    1.026    -6.98100612    63    1    1.07937    0.952381;
    123    1    9    2.6    0    0    1    1.02433521    -7.12258157    63    1    1.07937    0.952381;
    124    1    8    -0.9    0    0    1    1.03687761    -25.0059404    90    1    1.06667    0.977778;
    125    1    10.5    -0.5    0    0    1    1.03660633    -9.73718786    63    1    1.07937    0.952381;
    126    1    0.3    -0.1    0    0    1    1.02900797    -19.213491    63    1    1.06349    0.936508;
    127    1    7.8    1.5    0    0    1    1.03093869    -19.2520028    63    1    1.04762    0.952381;
    128    1    11.8    7.6    0    0    1    1.02466148    -12.3246009    63    1    1.06349    0.968254;
    129    1    16.7    11.8    0    0    1    1.02330166    -10.5913039    63    1    1.06349    0.968254;
    130    1    0    0    0    0    1    1.04853243    -10.234113    225    1    1.08444    1.00889;
    131    1    103    13.6    0    0    1    1.04725413    -18.9230351    225    1    1.08444    1.00889;
    132    1    11.5    0    0    0    1    1.06233109    -21.9925731    90    1    1.07778    0.922222;
    133    1    2.1    0.5    0    0    1    1.01860011    -19.0709112    63    1    1.04762    0.952381;
    134    1    83.5    23.6    0    0    1    1.0621895    -16.4776065    225    1    1.08889    1.00444;
    135    1    0    0    0    0    1    1.06977127    -18.6816498    225    1    1.08889    1.00444;
    136    1    21.9    -0.2    0    0    1    1.04391982    -29.8843892    90    1    1.07778    0.977778;
    137    1    9.6    -4.4    0    0    1    1.03601672    -17.1253946    63    1    1.06349    0.968254;
    138    1    0    0    0    0    1    1.04109884    -14.6832648    150    1    1.08    0.966667;
    139    1    15.7    2.2    0    0    1    1.05124749    -19.4633909    63    1    1.07937    0.920635;
    140    1    0    0    0    80    1    1.08264555    -16.3557384    225    1    1.08889    1;
    141    1    0    0    0    0    1    1.08934232    -13.0970356    380    1    1.10526    1.05263;
    142    1    14.8    5.8    0    0    1    1.01617232    -11.4288672    63    1    1.07937    0.952381;
    143    1    0    0    0    0    1    1.06475215    -7.27056014    225    1    1.08889    0.986667;
    144    1    23.3    -10.3    0    0    1    1.04710211    -10.7128601    90    1    1.11111    0.955556;
    145    1    27.6    5.9    0    0    1    1.07490608    -6.45146512    225    1    1.08889    0.968889;
    146    1    0    0    0    0    1    1.08278855    -3.92536105    380    1    1.10526    1;
    147    1    29    5.5    0    0    1    1.0386995    -15.174012    63    1    1.06349    0.936508;
    148    1    6.7    2.4    0    0    1    1.02565634    -13.714408    63    1    1.06349    0.936508;
    149    1    17.9    6.1    0    0    1    1.04244851    -30.1075951    90    1    1.06667    0.977778;
    150    1    44.5    6.4    0    0    1    1.02473028    -10.1263113    63    1    1.06349    0.936508;
    151    1    0    0    0    0    1    0.988505783    -26.8202154    63    1    1.06349    0.968254;
    152    1    38.3    8.8    0    7.7    1    0.988353124    -25.5486396    63    1    1.06349    0.968254;
    153    1    23.2    -2.6    0    0    1    1.03205599    -13.4489519    63    1    1.06349    0.936508;
    154    1    0    0    0    0    1    1.06299186    -9.75398675    225    1    1.08889    0.933333;
    155    2    0    0    0    0    1    0.976929148    -24.3708403    63    1    1.07937    0.920635;
    156    1    0    0    0    0    1    0.988466972    -26.8231599    63    1    1.06349    0.968254;
    157    1    0.3    3.1    0    0    1    0.898643427    -8.70269787    45    1    1    0.888889;
    158    2    0    0    0    0    1    0.947    -10.2100054    45    1    1    0.888889;
    159    1    0    0    0    0    1    1.00930424    -12.4276133    63    1    1.06349    0.936508;
    160    1    35.2    5.6    0    0    1    1.06351742    -4.51894158    225    1    1.08889    0.888889;
    161    1    38.2    8.7    0    0    1    1.06337095    -4.52500071    225    1    1.08889    0.888889;
    162    1    0.7    -1.4    0    0    1    1.02519745    -18.1624013    90    1    1.06667    0.977778;
    163    1    0    0    0    0    1    1.02132475    -6.12405355    63    1    1.07937    0.952381;
    164    1    0    0    0    0    1    1.02132475    -6.12405355    63    1    1.07937    0.952381;
    165    1    16.7    9.2    0    0    1    1.06915268    -25.0762238    20    1    1.15    0.8;
    166    1    10.1    2.4    0    0    1    1.04140931    -29.4846159    90    1    1.06667    0.977778;
    167    1    13.6    0.6    0    0    1    1.03414444    -29.8034013    90    1    1.06667    0.977778;
    168    1    0    0    0    0    1    1.06923697    -25.0695908    225    1    1.08444    1.00444;
    169    1    10.8    -1    0    0    1    1.02614801    -27.4252079    90    1    1.06667    0.977778;
    170    1    70.4    11.6    0    0    1    1.04971714    -21.1649009    90    1    1.07778    0.977778;
    171    1    26.5    -0.4    0    0    1    1.04530758    -23.8352253    90    1    1.07778    0.977778;
    172    1    0    0    0    0    1    1.06424248    -19.7996401    225    1    1.08889    1.00444;
    173    1    27.7    8.5    0    0    1    1.06988751    -6.6360669    90    1    1.08889    0.933333;
    174    1    47.4    4.6    0    0    1    1.06571181    -11.1760476    90    1    1.11111    0.955556;
    175    1    0    0    0    0    1    1.00712011    -22.9595227    63    1    1.07937    0.920635;
    176    1    0    0    0    0    1    1.01591902    -20.6444117    63    1    1.07937    0.920635;
    177    2    0    0    0    0    1    1.07577555    -17.802203    150    1    1.1    0.9;
    178    1    0    0    0    0    1    1.08255583    -16.1808543    225    1    1.08889    1.00444;
    179    1    0    0    0    0    1    1.08255606    -16.1808555    225    1    1.08889    1.00444;
    180    1    0    0    0    -32    1    1.00063978    -19.4136199    20    1    1.15    0.8;
    181    1    0    0    0    -32    1    1.02321607    -19.3656671    20    1    1.15    0.8;
    182    1    0    0    0    0    1    1.03104351    -19.2448014    63    1    1.04762    0.952381;
    183    1    0    0    0    0    1    1.08255454    -16.1808473    225    1    1.08889    1.00444;
    184    1    12.9    -4.6    0    0    1    1.04936002    -26.2064878    63    1    1.07937    0.920635;
    185    1    16    3.1    0    0    1    1.03115253    -10.5549766    63    1    1.06349    0.936508;
    186    1    4.8    -0.4    0    0    1    1.01561152    -15.3256518    63    1    1.07937    0.952381;
    187    1    5    1.4    0    0    1    1.0668693    -18.4990416    90    1    1.07778    0.977778;
    188    1    28.7    4    0    0    1    1.00748138    -12.2660288    63    1    1.07937    0.952381;
    189    1    1.1    0.3    0    0    1    1.02537628    -17.4692252    90    1    1.06667    0.977778;
    190    2    0    0    0    0    1    1.02784401    -24.2276974    63    1    1.07937    0.920635;
    191    1    16.2    1.6    0    0    1    1.02872286    -23.7090813    63    1    1.07937    0.920635;
    192    2    0    0    0    0    1    0.948568517    -8.4102851    45    1    1    0.888889;
    193    1    13.8    -0.3    0    0    1    1.02845077    -27.4690924    90    1    1.06667    0.977778;
    194    1    7.4    -1.5    0    0    1    1.0457218    -24.2104703    63    1    1.07937    0.920635;
    195    1    7.9    4.8    0    0    1    1.07057329    -17.0740705    225    1    1.08889    1.00444;
    196    1    1    -0.3    0    0    1    1.04460986    -25.5235658    63    1    1.07937    0.920635;
    197    1    0    0    0    0    1    1.08953885    -16.5478115    63    1    1.09837    0.952381;
    198    1    0    0    0    0    1    1.08954033    -16.547854    63    1    1.09837    0.952381;
    199    1    24.4    1.2    0    0    1    1.01128259    -29.3280137    63    1    1.07937    0.920635;
    200    1    9.3    -2.7    0    0    1    1.0254829    -25.0320417    63    1    1.07937    0.920635;
...
];

%% generator data
%    bus    Pg    Qg    Qmax    Qmin    Vg    mBase    status    Pmax    Pmin    Pc1    Pc2    Qc1min    Qc1max    Qc2min    Qc2max    ramp_agc    ramp_10    ramp_30    ramp_q    apf
mpc.gen = [
    4    0    0    0    0    1.045    100    0    12    0    0    0    0    0    0    0    0    0    0    0    0;
    4    0    0    0    0    1.045    100    0    10    0    0    0    0    0    0    0    0    0    0    0    0;
    5    6.05    0    0    0    1.017    100    1    9.1    0    0    0    0    0    0    0    0    0    0    0    0;
    11    0    0    0    0    1.035    100    0    28    0    0    0    0    0    0    0    0    0    0    0    0;
    11    0    0    0    0    1.035    100    0    18    0    0    0    0    0    0    0    0    0    0    0    0;
    17    1.22    0    0    0    1.049    100    1    8.2    0    0    0    0    0    0    0    0    0    0    0    0;
    19    0    0    0    0    1.02    100    0    1.2    0    0    0    0    0    0    0    0    0    0    0    0;
    22    0    0    0    0    1.013    100    0    10    0    0    0    0    0    0    0    0    0    0    0    0;
    24    0    0    0    0    1.042    100    0    16.1    0    0    0    0    0    0    0    0    0    0    0    0;
    24    0.18    0    0    0    1.042    100    1    35.5    0    0    0    0    0    0    0    0    0    0    0    0;
    25    3.21    0    0    0    1.074    100    1    36    0    0    0    0    0    0    0    0    0    0    0    0;
    25    0    0    0    0    1.074    100    0    27.2    0    0    0    0    0    0    0    0    0    0    0    0;
    40    0    0    0    0    1.063    100    0    8    0    0    0    0    0    0    0    0    0    0    0    0;
    47    23.8542774    -9.5    9.5    -9.5    1.012    100    1    16    0    0    0    0    0    0    0    0    0    0    0    0;
    47    0    0    9.5    -9.5    1.012    100    0    16    0    0    0    0    0    0    0    0    0    0    0    0;
    48    2.17    0    0    0    1.035    100    1    23    0    0    0    0    0    0    0    0    0    0    0    0;
    48    1.17    0    0    0    1.035    100    1    24    0    0    0    0    0    0    0    0    0    0    0    0;
    57    0    1    1    0.9    1.051    100    1    13    0    0    0    0    0    0    0    0    0    0    0    0;
    64    0    0    0    0    1.075    100    0    24    0    0    0    0    0    0    0    0    0    0    0    0;
    64    1.19    0    0    0    1.075    100    1    27.6    0    0    0    0    0    0    0    0    0    0    0    0;
    69    7.25    0    0    0    1.042    100    1    30.04    0    0    0    0    0    0    0    0    0    0    0    0;
    70    3.27    0    0    0    1.015    100    1    23    0    0    0    0    0    0    0    0    0    0    0    0;
    85    0    0    0    0    1.034    100    0    6.68    0    0    0    0    0    0    0    0    0    0    0    0;
    86    2.76    0    0    0    1.021    100    1    9.2    0    0    0    0    0    0    0    0    0    0    0    0;
    102    18.1715409    -4.33408438    21    -9    1.026    100    1    46    0    0    0    0    0    0    0    0    0    0    0    0;
    122    7.97    -0.275265093    5    -2    1.026    100    1    12    0    0    0    0    0    0    0    0    0    0    0    0;
    124    1.36    0    0    0    1.038    100    1    9    0    0    0    0    0    0    0    0    0    0    0    0;
    125    6.12    0    0    0    1.037    100    1    26    0    0    0    0    0    0    0    0    0    0    0    0;
    125    1.12    0    0    0    1.037    100    1    12    0    0    0    0    0    0    0    0    0    0    0    0;
    132    7.12    3    3    -3    1.065    100    1    17    0    0    0    0    0    0    0    0    0    0    0    0;
    132    0    0    1    -1    1.065    100    0    4    0    0    0    0    0    0    0    0    0    0    0    0;
    132    0    0    3    -3    1.065    100    0    14    0    0    0    0    0    0    0    0    0    0    0    0;
    132    0    0    3    -3    1.065    100    0    14    0    0    0    0    0    0    0    0    0    0    0    0;
    137    0    0    0.8    -0.8    1.032    100    0    18    0    0    0    0    0    0    0    0    0    0    0    0;
    137    4    -0.8    0.8    -0.8    1.032    100    1    18    0    0    0    0    0    0    0    0    0    0    0    0;
    155    0    0    1.76    -1.76    0.971    100    0    5.3    0    0    0    0    0    0    0    0    0    0    0    0;
    158    7.05    -0.00330475402    10    -13    0.947    100    1    17.9    0    0    0    0    0    0    0    0    0    0    0    0;
    158    0    0    10    -13    0.947    100    0    17.9    0    0    0    0    0    0    0    0    0    0    0    0;
    177    0    0    10    -4    1.073    100    0    30    0    0    0    0    0    0    0    0    0    0    0    0;
    190    0    0    8    -8    1.009    100    0    11    0    0    0    0    0    0    0    0    0    0    0    0;
    190    0    0    2    -2    1.009    100    0    11    0    0    0    0    0    0    0    0    0    0    0    0;
    192    0    0    14    -14    0.939    100    0    30    0    0    0    0    0    0    0    0    0    0    0    0;
    194    0    0    0    0    1.05    100    0    23.5    0    0    0    0    0    0    0    0    0    0    0    0;
    196    2.44    0.9    1    0.9    1.037    100    1    15    0    0    0    0    0    0    0    0    0    0    0    0;
    196    2.44    0.9    1    0.9    1.037    100    1    15    0    0    0    0    0    0    0    0    0    0    0    0;
    219    1.46    0    0    0    1.016    100    1    11.94    0    0    0    0    0    0    0    0    0    0    0    0;
    226    0    0    2    0    1.073    100    0    6    0    0    0    0    0    0    0    0    0    0    0    0;
    229    3.17    0    0    0    1.025    100    1    7.5    0    0    0    0    0    0    0    0    0    0    0    0;
    238    1.2    0    0    0    1.047    100    1    33.5    0    0    0    0    0    0    0    0    0    0    0    0;
    238    0.2    0    0    0    1.047    100    1    24.3    0    0    0    0    0    0    0    0    0    0    0    0;
    240    0    0    0    0    1.022    100    0    8    0    0    0    0    0    0    0    0    0    0    0    0;
    240    6.28    0    0    0    1.022    100    1    36    0    0    0    0    0    0    0    0    0    0    0    0;
    248    0    0    2    0    0.976    100    0    1    0    0    0    0    0    0    0    0    0    0    0    0;
    248    0    0    10    -10    0.976    100    0    31    0    0    0    0    0    0    0    0    0    0    0    0;
    248    0    0    10    -10    0.976    100    0    31    0    0    0    0    0    0    0    0    0    0    0    0;
    248    0    0    10    -10    0.976    100    0    31    0    0    0    0    0    0    0    0    0    0    0    0;
    258    0    0    10    -10    1.031    100    0    26    0    0    0    0    0    0    0    0    0    0    0    0;
    258    0    0    10    -10    1.031    100    0    26    0    0    0    0    0    0    0    0    0    0    0    0;
    260    27.18    1    1    0.9    1.071    100    1    30    0    0    0    0    0    0    0    0    0    0    0    0;
    263    3.85    -3.75488704    4    -4    0.998    100    1    8    0    0    0    0    0    0    0    0    0    0    0    0;
    271    0    0    0    0    0.997    100    0    12.6    0    0    0    0    0    0    0    0    0    0    0    0;
    284    0    0    6.1    -6.2    0.975    100    0    11.6    0    0    0    0    0    0    0    0    0    0    0    0;
    297    0    0    0    0    1.064    100    0    25.3    0    0    0    0    0    0    0    0    0    0    0    0;
    298    0    0    0    0    1.014    100    0    12    0    0    0    0    0    0    0    0    0    0    0    0;
    307    1.12    -6.22857418    9    -9    1.038    100    1    15    0    0    0    0    0    0    0    0    0    0    0    0;
    314    7.16    0    0    0    1.032    100    1    25.8    0    0    0    0    0    0    0    0    0    0    0    0;
    314    18.16    0    0    0    1.032    100    1    49.6    0    0    0    0    0    0    0    0    0    0    0    0;
    319    0    0    0    0    1.05    100    0    0    -7    0    0    0    0    0    0    0    0    0    0    0;
    319    0    0    0    0    1.05    100    0    0    -7    0    0    0    0    0    0    0    0    0    0    0;
    321    4.8    -0.1    0.1    -0.1    1.042    100    1    10.8    0    0    0    0    0    0    0    0    0    0    0    0;
    327    0    0    4    -4    1.023    100    0    11    0    0    0    0    0    0    0    0    0    0    0    0;
    334    0    0    13    -9    1.028    100    0    25    0    0    0    0    0    0    0    0    0    0    0    0;
    335    2.11    13    13    -9    1.037    100    1    25    0    0    0    0    0    0    0    0    0    0    0    0;
    338    9.13    -1.36045393    5    -6    1.013    100    1    13    0    0    0    0    0    0    0    0    0    0    0    0;
    340    0    0    10    -10    1.034    100    0    21    0    0    0    0    0    0    0    0    0    0    0    0;
    340    0    0    0.1    -0.1    1.034    100    0    2    0    0    0    0    0    0    0    0    0    0    0    0;
    347    0    0    0    0    1.057    100    0    2.3    0    0    0    0    0    0    0    0    0    0    0    0;
    347    15.24    0    0    0    1.057    100    1    19.5    0    0    0    0    0    0    0    0    0    0    0    0;
    350    0    0    0    0    1.058    100    0    22    0    0    0    0    0    0    0    0    0    0    0    0;
    358    0    0    30    -30    1.027    100    0    30    0    0    0    0    0    0    0    0    0    0    0    0;
    359    1.97    0    0    0    1.001    100    1    12    0    0    0    0    0    0    0    0    0    0    0    0;
    359    2.97    0    0    0    1.001    100    1    12    0    0    0    0    0    0    0    0    0    0    0    0;
    366    127.22    28.0479323    59    -26    1.078    100    1    130    0    0    0    0    0    0    0    0    0    0    0    0;
    393    0    0    0    0    1.006    100    0    2.7    0    0    0    0    0    0    0    0    0    0    0    0;
    412    1.4    0    0    0    1.026    100    1    10    0    0    0    0    0    0    0    0    0    0    0    0;
    412    1.4    0    0    0    1.026    100    1    11.5    0    0    0    0    0    0    0    0    0    0    0    0;
    432    0    0    0    0    1.047    100    0    12    0    0    0    0    0    0    0    0    0    0    0    0;
    441    0    0    10.96    -11.99    1.023    100    0    34.25    0    0    0    0    0    0    0    0    0    0    0    0;
    448    0    0    8    -9    0.992    100    0    25    0    0    0    0    0    0    0    0    0    0    0    0;
    463    0    0    0    0    1.013    100    0    2.4    0    0    0    0    0    0    0    0    0    0    0    0;
    463    3.21    0    0    0    1.013    100    1    16    0    0    0    0    0    0    0    0    0    0    0    0;
    465    7.19    0.813486504    6    -3    1.171    100    1    27    1    0    0    0    0    0    0    0    0    0    0    0;
    465    7.19    0.813486504    6    -3    1.171    100    1    27    1    0    0    0    0    0    0    0    0    0    0    0;
    467    42.78    10.9009672    19    -10    1.042    100    1    48    1    0    0    0    0    0    0    0    0    0    0    0;
    471    0    0    6    -6    1.035    100    0    10    0    0    0    0    0    0    0    0    0    0    0    0;
    471    0    0    5.4    -5.4    1.035    100    0    9    0    0    0    0    0    0    0    0    0    0    0    0;
    480    0    0    17    -16    0.982    100    0    27    0    0    0    0    0    0    0    0    0    0    0    0;
    480    0    0    17    -16    0.982    100    0    27    0    0    0    0    0    0    0    0    0    0    0    0;
    480    0    0    17    -16    0.982    100    0    27    0    0    0    0    0    0    0    0    0    0    0    0;
    492    0    0    8    -17    1.055    100    0    23.4    0    0    0    0    0    0    0    0    0    0    0    0;
    509    0    0    2    -2    1.002    100    0    4    0    0    0    0    0    0    0    0    0    0    0    0;
    518    0    0    0    0    1    100    0    10    0    0    0    0    0    0    0    0    0    0    0    0;
    519    8.33    0    0    0    1.035    100    1    12    0    0    0    0    0    0    0    0    0    0    0    0;
    529    0    0    4.8    -4.8    1.017    100    0    8    0    0    0    0    0    0    0    0    0    0    0    0;
    529    0    0    4.8    -4.8    1.017    100    0    8    0    0    0    0    0    0    0    0    0    0    0    0;
    529    1.95    -4.8    4.8    -4.8    1.017    100    1    8    0    0    0    0    0    0    0    0    0    0    0    0;
    535    0.28    0    0    0    1.014    100    1    12    0    0    0    0    0    0    0    0    0    0    0    0;
    535    4.28    0    0    0    1.014    100    1    24    0    0    0    0    0    0    0    0    0    0    0    0;
    544    1.22    1.9    2    1.9    1    100    1    9    0    0    0    0    0    0    0    0    0    0    0    0;
    547    0    0    2    0    0.984    100    0    12    0    0    0    0    0    0    0    0    0    0    0    0;
    569    2.23    0    0    0    1.006    100    1    12    0    0    0    0    0    0    0    0    0    0    0    0;
    569    12.23    0    0    0    1.006    100    1    30    0    0    0    0    0    0    0    0    0    0    0    0;
    569    5.23    0    0    0    1.006    100    1    11.5    0    0    0    0    0    0    0    0    0    0    0    0;
    582    4.38    4.52560561    7    -4    1.029    100    1    16    0    0    0    0    0    0    0    0    0    0    0    0;
    584    0.16    0    0    0    0.993    100    1    9    0    0    0    0    0    0    0    0    0    0    0    0;
    585    1.04    -0.262323641    5.7    -5.7    1.01    100    1    9.5    0    0    0    0    0    0    0    0    0    0    0    0;
    588    0    0    0.1    -0.1    1.029    100    0    1    0    0    0    0    0    0    0    0    0    0    0    0;
    592    0    0    10    -10    1.012    100    0    21    0    0    0    0    0    0    0    0    0    0    0    0;
    599    0    0    1    -1    1.026    100    0    6.1    0    0    0    0    0    0    0    0    0    0    0    0;
    609    41.38    -3.48245939    45    -45    1.02    100    1    45    0    0    0    0    0    0    0    0    0    0    0    0;
    609    0    0    45    -45    1.02    100    0    45    0    0    0    0    0    0    0    0    0    0    0    0;
    611    3.39    0    0    0    1.01    100    1    12    0    0    0    0    0    0    0    0    0    0    0    0;
    611    3.39    0    0    0    1.01    100    1    12    0    0    0    0    0    0    0    0    0    0    0    0;
    611    3.39    0    0    0    1.01    100    1    12    0    0    0    0    0    0    0    0    0    0    0    0;
    612    2.14    0    0    0    1.012    100    1    35    0    0    0    0    0    0    0    0    0    0    0    0;
    612    0    0    0    0    1.012    100    0    11.5    0    0    0    0    0    0    0    0    0    0    0    0;
    623    -2.11    -8.3    8.3    -8.3    1.049    100    1    8.3    -8.3    0    0    0    0    0    0    0    0    0    0    0;
    632    0    0    4    -4    1.026    100    0    7.3    0    0    0    0    0    0    0    0    0    0    0    0;
    635    0    0    7    0    1.011    100    0    15    0    0    0    0    0    0    0    0    0    0    0    0;
    635    4.02    4.93575285    7    0    1.011    100    1    15    0    0    0    0    0    0    0    0    0    0    0    0;
    640    94.82    -96.3911075    80    -102.8    1.083    100    1    239    0    0    0    0    0    0    0    0    0    0    0    0;
    651    0    0    7    0    1.064    100    0    7    0    0    0    0    0    0    0    0    0    0    0    0;
    669    3.19    0    0    0    1.033    100    1    12    0    0    0    0    0    0    0    0    0    0    0    0;
    669    3.19    0    0    0    1.033    100    1    12    0    0    0    0    0    0    0    0    0    0    0    0;
    670    3.25    0    0    0    1.053    100    1    7.5    0    0    0    0    0    0    0    0    0    0    0    0;
    670    14.25    0    0    0    1.053    100    1    24    0    0    0    0    0    0    0    0    0    0    0    0;
    678    0    0    0    0    1.011    100    0    6.6    0    0    0    0    0    0    0    0    0    0    0    0;
    679    0.12    0    0    0    1.059    100    1    12    0    0    0    0    0    0    0    0    0    0    0    0;
    683    4.2    -4.36492642    6    -5    0.89    100    1    9    0    0    0    0    0    0    0    0    0    0    0    0;
    683    4.2    -4.36492642    6    -5    0.89    100    1    9    0    0    0    0    0    0    0    0    0    0    0    0;
    683    0    0    8    -5    0.89    100    0    11    0    0    0    0    0    0    0    0    0    0    0    0;
    683    4.2    -4.24945849    8    -5    0.89    100    1    11    0    0    0    0    0    0    0    0    0    0    0    0;
    694    16.2    0    0    0    1.055    100    1    32.35    0    0    0    0    0    0    0    0    0    0    0    0;
    694    1.2    0    0    0    1.055    100    1    12    0    0    0    0    0    0    0    0    0    0    0    0;
    694    7.2    0    0    0    1.055    100    1    21    0    0    0    0    0    0    0    0    0    0    0    0;
    698    31.61    -6.68370145    15    -17    1.02    100    1    37    0    0    0    0    0    0    0    0    0    0    0    0;
    698    30.63    -6.68370145    15    -17    1.02    100    1    37    0    0    0    0    0    0    0    0    0    0    0    0;
    697    32.52    -7.00025362    15    -15    1.02    100    1    37    0    0    0    0    0    0    0    0    0    0    0    0;
    697    29.5    -7.00025362    15    -15    1.02    100    1    37    0    0    0    0    0    0    0    0    0    0    0    0;
    696    31.51    -5.07195754    15    -17    1.023    100    1    37    0    0    0    0    0    0    0    0    0    0    0    0;
    696    31.51    -5.07195754    15    -17    1.023    100    1    37    0    0    0    0    0    0    0    0    0    0    0    0;
    704    1.17    -1.23070165    2    -2    0.896    100    1    4    0    0    0    0    0    0    0    0    0    0    0    0;
    704    1.17    -1.53837707    2.5    -2.5    0.896    100    1    4    0    0    0    0    0    0    0    0    0    0    0    0;
    704    2.87    -1.84605248    3    -3    0.896    100    1    5.7    0    0    0    0    0    0    0    0    0    0    0    0;
    704    0    0    6    -5    0.896    100    0    8.5    0    0    0    0    0    0    0    0    0    0    0    0;
    731    16.79    0    0    0    1.044    100    1    19.5    0    0    0    0    0    0    0    0    0    0    0    0;
    732    27.31    -2.15414289    18    -18    0.977    100    1    39    0    0    0    0    0    0    0    0    0    0    0    0;
    733    1.1    0    0    0    1.004    100    1    11.5    0    0    0    0    0    0    0    0    0    0    0    0;
    733    2.1    0    0    0    1.004    100    1    32    0    0    0    0    0    0    0    0    0    0    0    0;
    735    0    0    0    0    1.051    100    0    12    0    0    0    0    0    0    0    0    0    0    0    0;
    735    7.19    0    0    0    1.051    100    1    32    0    0    0    0    0    0    0    0    0    0    0    0;
    736    0.46    -0.1    0.1    -0.1    1.032    100    1    5    0    0    0    0    0    0    0    0    0    0    0    0;
    743    3.56    1.77751198    3.72    -3.7    0.983    100    1    6.7    0    0    0    0    0    0    0    0    0    0    0    0;
    743    2.65    1.42925497    3    -3    0.983    100    1    5.6    0    0    0    0    0    0    0    0    0    0    0    0;
    744    3.25    -19.76    15    -19.76    0.975    100    1    26.6    0    0    0    0    0    0    0    0    0    0    0    0;
    745    4.6    2    2    -2    1.011    100    1    7    1    0    0    0    0    0    0    0    0    0    0    0;
    750    0    0    3    -3    0.975    100    0    5    -5    0    0    0    0    0    0    0    0    0    0    0;
    757    0    0    8    -8    1.068    100    0    23.5    0    0    0    0    0    0    0    0    0    0    0    0;
    759    0    0    0    0    1.037    100    0    6    0    0    0    0    0    0    0    0    0    0    0    0;
    760    0    0    0    0    1.035    100    0    6    0    0    0    0    0    0    0    0    0    0    0    0;
    759    16.11    -4.8165218    10    -6    1.037    100    1    37.5    0    0    0    0    0    0    0    0    0    0    0    0;
    760    15.44    -1.39994718    10    -6    1.035    100    1    37.5    0    0    0    0    0    0    0    0    0    0    0    0;
    761    0    0    0.06    -0.06    0.596    100    0    0.6    0    0    0    0    0    0    0    0    0    0    0    0;
    761    0.91    2.61    2.61    -2.61    0.596    100    1    26.1    0    0    0    0    0    0    0    0    0    0    0    0;
    761    0    0    0.16    -0.16    0.596    100    0    1.6    0    0    0    0    0    0    0    0    0    0    0    0;
    761    0    0    0.11    -0.11    0.596    100    0    1.1    0    0    0    0    0    0    0    0    0    0    0    0;
    765    0    0    0    0    1.02    100    0    37.5    0    0    0    0    0    0    0    0    0    0    0    0;
    765    0.16    0    0    0    1.02    100    1    34    0    0    0    0    0    0    0    0    0    0    0    0;
    785    0    0    26    -26    1.004    100    0    8    0    0    0    0    0    0    0    0    0    0    0    0;
    785    0    0    26    -26    1.004    100    0    15    0    0    0    0    0    0    0    0    0    0    0    0;
    786    0    0    26    -26    1.009    100    0    19    0    0    0    0    0    0    0    0    0    0    0    0;
    800    25.57    -6.87331638    15    -17    1.02    100    1    31    0    0    0    0    0    0    0    0    0    0    0    0;
    800    26.55    -6.87331638    15    -17    1.02    100    1    31    0    0    0    0    0    0    0    0    0    0    0    0;
    801    26.91    -5.74936823    15    -17    1.022    100    1    31    0    0    0    0    0    0    0    0    0    0    0    0;
    801    26.91    -5.74936823    15    -17    1.022    100    1    31    0    0    0    0    0    0    0    0    0    0    0    0;
    802    25.92    -6.39635215    15    -17    1.021    100    1    31    0    0    0    0    0    0    0    0    0    0    0    0;
    802    26.91    -6.39635215    15    -17    1.021    100    1    31    0    0    0    0    0    0    0    0    0    0    0    0;
    806    0.88    0    0    0    1.008    100    1    40.8    0    0    0    0    0    0    0    0    0    0    0    0;
    814    23.28    -0.656905755    6    -9    1.023    100    1    32    1    0    0    0    0    0    0    0    0    0    0    0;
    814    0    0    6    -9    1.023    100    0    32    1    0    0    0    0    0    0    0    0    0    0    0;
    815    23.25    0.250996999    6    -9    1.024    100    1    32    1    0    0    0    0    0    0    0    0    0    0    0;
    815    23.25    0.250996999    6    -9    1.024    100    1    32    1    0    0    0    0    0    0    0    0    0    0    0;
    815    21.25    0.250996999    6    -9    1.024    100    1    32    1    0    0    0    0    0    0    0    0    0    0    0;
    815    23.25    0.250996999    6    -9    1.024    100    1    32    1    0    0    0    0    0    0    0    0    0    0    0;
    825    0    0    3    -3    1.042    100    0    13    0    0    0    0    0    0    0    0    0    0    0    0;
    825    1.16    3    3    -3    1.042    100    1    7    0    0    0    0    0    0    0    0    0    0    0    0;
    828    0    0    0    0    1.059    100    0    2.4    0    0    0    0    0    0    0    0    0    0    0    0;
    829    9.77    -4.11713136    10    -10    1.032    100    1    27    0    0    0    0    0    0    0    0    0    0    0    0;
    830    0    0    10    -10    0.937    100    0    20    0    0    0    0    0    0    0    0    0    0    0    0;
    832    0    0    3.14    -3.43    1.053    100    0    9.8    0    0    0    0    0    0    0    0    0    0    0    0;
...
];

%% branch data
%    fbus    tbus    r    x    b    rateA    rateB    rateC    ratio    angle    status    angmin    angmax    Pf    Qf    Pt    Qt
mpc.branch = [
    4644    1    0.005726    0.010482    0    0    0    0    1    0    1    0    0    0.0000    1.0000    0.0001    -0.9999;
    5243    1    0.01284    0.025679    0    0    0    0    1    0    1    0    0    0.0002    -0.9996    -0.0001    0.9999;
    1682    2    0.005799    0.010615    0.0075    0    0    0    1    0    1    0    0    0.0000    -0.7901    0.0000    -0.0000;
    1673    3    0.134039    0.309398    0.0035    0    0    0    1    0    1    0    0    13.4407    -0.7172    -13.2076    0.8962;
    2302    3    0.049131    0.133283    0.0015    0    0    0    1    0    1    0    0    -0.7074    0.0454    0.7076    -0.1962;
    694    4    0.025926    0.109136    0.0002    0    0    0    1    0    1    0    0    22.3785    4.6116    -22.2567    -4.1208;
    3940    4    0.05    0.126914    0.0006    0    0    0    1    0    1    0    0    -2.2258    -0.8043    2.2283    0.7455;
    5043    4    0.02321    0.097407    0.0016    0    0    0    1    0    1    0    0    24.8053    -3.8892    -24.6717    4.2753;
    4414    5    0.040564    0.113631    0.0013    0    0    0    1    0    1    0    0    5.9639    0.0046    -5.9500    -0.1000;
    2780    6    0.006047    0.020912    0.0222    0    0    0    1    0    1    0    0    13.0101    1.9566    -13.0000    -4.3000;
    2781    7    0.012472    0.032099    0.0061    0    0    0    1    0    1    0    0    1.2002    0.1331    -1.2000    -0.8000;
    2468    8    0.002607    0.017462    0.0324    540    540    540    1    0    1    0    0    25.8156    1.3516    -25.8000    -4.9000;
    471    9    0.053893    0.14258    0.0017    0    0    0    1    0    1    0    0    12.9825    0.0322    -12.9000    -0.0000;
    11    10    0.000247    0.001235    0.0005    0    0    0    1    0    1    0    0    0.0000    -0.0454    0.0000    -0.0080;
    11    10    0.000247    0.001235    0.0002    0    0    0    1    0    1    0    0    0.0000    -0.0294    0.0000    0.0080;
    30    11    0.039753    0.100988    0.0047    0    0    0    1    0    1    0    0    -1.5259    1.1209    1.5274    -1.6197;
    2930    11    0.037654    0.096173    0.001    0    0    0    1    0    1    0    0    30.6516    0.1254    -30.3274    0.5945;
    2180    12    0.014613    0.060721    0.0008    0    0    0    1    0    1    0    0    7.6342    2.9154    -7.6247    -2.9581;
    4018    12    0.034064    0.121139    0.0015    0    0    0    1    0    1    0    0    7.4973    2.9236    -7.4759    -3.0020;
    4020    12    0.000242    0.000442    0.0004    0    0    0    1    0    1    0    0    -15.1000    -6.0000    15.1006    5.9602;
    115    13    2.1e-05    0.000125    0.1386    737    737    737    1    0    1    0    0    -0.0000    112.7806    0.0027    -128.3178;
    2336    13    0.000145    0.001877    0.0635    2487    2487    2487    1    0    1    0    0    -289.8095    -98.1260    289.9301    92.5760;
    4574    13    0.000319    0.003234    0.0838    1841    1841    1841    1    0    1    0    0    290.1807    -58.1755    -289.9328    51.2932;
    116    13    2.1e-05    0.000125    0.1386    737    737    737    1    0    1    0    0    0.0000    0.0000    0.0000    -15.5514;
    1224    14    0.04    0.134198    0.0274    0    0    0    1    0    1    0    0    -51.8251    -0.0207    52.8146    0.3050;
    2875    14    0.012222    0.052346    0.0026    0    0    0    1    0    1    0    0    -36.2969    2.4070    36.4411    -2.0822;
    4592    14    0.007284    0.045432    0.0024    0    0    0    1    0    1    0    0    112.5225    5.0575    -111.7172    -0.3083;
    4950    14    0.059963    0.154222    0.0236    0    0    0    1    0    1    0    0    -40.3289    1.3376    41.2318    -1.6271;
    5229    14    0.018025    0.110988    0.0073    0    0    0    1    0    1    0    0    -6.3536    -4.7594    6.3632    3.9986;
    2875    14    0.012222    0.052593    0.0032    0    0    0    1    0    1    0    0    -36.1378    2.3244    36.2807    -2.0697;
    4592    14    0.007284    0.044938    0.0024    0    0    0    1    0    1    0    0    113.7368    4.9178    -112.9142    -0.1162;
    2907    15    0.037541    0.100529    0.0011    0    0    0    1    0    1    0    0    -31.7011    1.3955    32.0857    -0.4750;
    4126    15    0.090199    0.211388    0.0023    0    0    0    1    0    1    0    0    0.9173    -4.5734    -0.8983    4.3886;
    4454    15    0.09801    0.267574    0    0    0    0    1    0    1    0    0    32.1508    6.5438    -31.1873    -3.9136;
    251    16    0.071806    0.191484    0.0019    0    0    0    1    0    1    0    0    7.5578    2.8685    -7.5142    -2.9565;
    339    16    0.119174    0.284958    0.0044    0    0    0    1    0    1    0    0    6.3310    0.7787    -6.2858    -1.1435;
    5835    17    0.022346    0.061111    0.0029    0    0    0    1    0    1    0    0    11.9088    -0.0395    -11.8800    -0.2000;
    3728    18    0.009383    0.019753    0    0    0    0    1    0    1    0    0    0.0000    -0.0000    -0.0000    0.0000;
    5091    19    0.000252    0.000504    0    0    0    0    1    0    1    0    0    1.0000    0.0000    -1.0000    0.0000;
    3728    20    0.001975    0.004444    0    0    0    0    1    0    1    0    0    0.9102    -21.4769    -0.9000    21.5000;
    1353    21    0.036296    0.099012    0.0045    0    0    0    1    0    1    0    0    -10.1656    -1.3300    10.2010    0.9418;
    1598    21    0.032716    0.089136    0.0057    0    0    0    1    0    1    0    0    18.6067    -2.6892    -18.5010    2.3582;
    1842    22    0.138574    0.351474    0.0058    0    0    0    1    0    1    0    0    15.4715    -0.2705    -15.1608    0.4508;
    5020    22    0.094407    0.210456    0.0044    0    0    0    1    0    1    0    0    2.8482    1.1162    -2.8392    -1.5508;
    1156    23    0.047115    0.117158    0.001    0    0    0    1    0    1    0    0    6.2162    2.2228    -6.1963    -2.2761;
    2705    23    0.039557    0.120937    0.0132    0    0    0    1    0    1    0    0    20.1695    0.1932    -20.0146    -1.0823;
    3425    23    0.022676    0.062484    0.0007    0    0    0    1    0    1    0    0    -7.0000    0.0000    7.0109    -0.0415;
    144    24    0.064568    0.16716    0.0113    0    0    0    1    0    1    0    0    16.3367    -2.8308    -16.1767    2.0135;
    1281    24    0.048605    0.128481    0.0062    0    0    0    1    0    1    0    0    -0.2566    -0.2582    0.2567    -0.4135;
    491    25    0.004815    0.02963    0.0016    0    0    0    1    0    1    0    0    44.6634    -14.0327    -44.5714    14.4152;
    2092    25    0.007309    0.04463    0.0073    0    0    0    1    0    1    0    0    12.1353    10.4738    -12.1186    -11.2152;
    611    26    0.034321    0.145802    0.0073    0    0    0    1    0    1    0    0    -34.8613    -0.7474    35.2709    1.7339;
    1865    26    0.004815    0.009753    0.0005    0    0    0    1    0    1    0    0    -14.0000    2.0000    14.0092    -2.0336;
    2604    26    0.049012    0.133704    0.0063    0    0    0    1    0    1    0    0    -27.9738    7.8352    28.3744    -7.3991;
    2923    26    0.04642    0.126543    0.0058    0    0    0    1    0    1    0    0    -10.5508    1.6625    10.6022    -2.1278;
    3339    26    0.046296    0.125926    0.006    0    0    0    1    0    1    0    0    -50.5704    4.2705    51.7567    -1.6594;
    4629    26    0.053704    0.136753    0.0065    0    0    0    1    0    1    0    0    -36.0761    3.9048    36.7735    -2.7993;
    2923    26    0.03358    0.120988    0.0062    0    0    0    1    0    1    0    0    -11.4594    0.8644    11.5023    -1.3571;
    534    27    0.006163    0.041067    0.0759    446    446    446    1    0    1    0    0    92.5176    -25.0739    -92.0278    19.7246;
    2349    27    0.000652    0.004369    0.0081    558    558    558    1    0    1    0    0    131.9290    29.0907    -131.8247    -29.3155;
    2686    28    0.050945    0.131922    0.0015    0    0    0    1    0    1    0    0    15.2793    -0.1443    -15.1672    0.2769;
    3893    28    0.058781    0.149005    0.0017    0    0    0    1    0    1    0    0    -14.3494    0.5991    14.4672    -0.4769;
    2888    29    0.067019    0.137566    0.0037    0    0    0    1    0    1    0    0    27.5469    -18.9173    -26.8030    20.0711;
    3321    29    0.032754    0.088939    0.0039    0    0    0    1    0    1    0    0    15.8754    10.7586    -15.7589    -10.8447;
    3321    29    0.030184    0.080096    0.0053    0    0    0    1    0    1    0    0    17.6697    11.7289    -17.5381    -11.9265;
    144    30    0.066049    0.187778    0.0099    0    0    0    1    0    1    0    0    23.4949    -1.3611    -23.1619    1.2350;
    1553    30    0.065062    0.133704    0.0062    0    0    0    1    0    1    0    0    -0.5566    5.2311    0.5754    -5.8606;
    4836    30    0.041728    0.106049    0.005    0    0    0    1    0    1    0    0    9.4304    -4.8304    -9.3876    4.4046;
    150    31    0.009574    0.03875    0.0114    0    0    0    1    0    1    0    0    -21.8645    -1.9710    21.9083    0.9480;
    3162    31    0.000171    0.000313    0.0002    0    0    0    1    0    1    0    0    0.3000    0.5000    -0.3000    -0.5211;
    3693    31    0.034266    0.09423    0.001    0    0    0    1    0    1    0    0    -33.0863    -0.8086    33.4506    1.7061;
    4740    31    0.006803    0.028219    0    0    0    0    1    0    1    0    0    -6.5288    -7.2721    6.5350    7.2978;
    150    31    0.008566    0.037541    0.0121    0    0    0    1    0    1    0    0    -22.6357    -2.4631    22.6778    1.3736;
    3730    32    0.009733    0.034089    0.0185    0    0    0    1    0    1    0    0    43.4170    0.6736    -43.2475    -2.0763;
    368    34    0.000277    0.002015    0.003    288    288    288    1    0    1    0    0    37.5982    -47.8984    -37.5890    47.6325;
    1016    33    0.00881    0.033995    0.0607    289    289    289    1    0    1    0    0    -91.9051    23.3579    92.6301    -27.3147;
    1157    33    0.004642    0.019832    0.0354    255    255    255    1    0    1    0    0    14.9666    -28.0783    -14.9285    24.3197;
    2582    34    0.008861    0.03506    0.0623    288    288    288    1    0    1    0    0    -22.4052    -28.8967    22.4990    22.4152;
    2706    34    0.006993    0.032869    0.0557    255    255    255    1    0    1    0    0    2.2471    -3.2239    -2.2468    -2.9630;
    4745    33    0.002173    0.008731    0.0152    0    0    0    1    0    1    0    0    -61.4852    -45.6927    61.5995    44.4691;
    4853    34    0.00077    0.003121    0.0051    0    0    0    1    0    1    0    0    -4.8682    -11.4394    4.8692    10.8772;
    5670    33    0.004109    0.016138    0.0284    288    288    288    1    0    1    0    0    22.1676    -22.5389    -22.1331    19.5228;
    370    35    8.3e-05    0.000907    0.0202    1034    1034    1034    1    0    1    0    0    147.3900    -88.7462    -147.3688    86.6496;
    1108    35    0.000552    0.006726    0.0939    1786    1786    1786    1    0    1    0    0    487.4502    -38.3278    -486.3077    41.4214;
    2149    35    0.000512    0.008012    0.2455    2462    2462    2462    1    0    1    0    0    277.9555    -18.9107    -277.6128    -4.0581;
    3135    35    0.001107    0.00918    0.1906    1644    1644    1644    1    0    1    0    0    -230.3298    2.1788    230.8421    -19.8804;
    369    36    6.2e-05    0.000741    0.0173    1095    1095    1095    1    0    1    0    0    131.7000    17.9635    -131.6906    -19.8678;
    2149    35    0.000512    0.008019    0.2455    2462    2462    2462    1    0    1    0    0    277.7141    -18.8912    -277.3720    -4.0823;
    2149    36    0.001153    0.013123    0.1841    1433    1433    1433    1    0    1    0    0    38.5110    -54.7771    -38.4767    33.8078;
    5228    37    0.055933    0.120685    0.0013    0    0    0    1    0    1    0    0    -16.5827    9.2347    16.7813    -8.9384;
    5514    37    0.039053    0.084404    0.001    0    0    0    1    0    1    0    0    20.1434    -4.3901    -19.9813    4.6384;
    724    38    0.00252    0.006551    0.0001    0    0    0    1    0    1    0    0    6.0009    -2.0087    -6.0000    2.0000;
    1228    39    0.009877    0.042222    0.0021    0    0    0    1    0    1    0    0    44.7670    -4.2474    -44.5826    4.8087;
    5809    39    0.024815    0.063086    0.0029    0    0    0    1    0    1    0    0    -47.6223    7.3872    48.1652    -6.3175;
    1228    39    0.009877    0.042222    0.0021    0    0    0    1    0    1    0    0    44.7670    -4.2474    -44.5826    4.8087;
    2250    40    0.056173    0.142593    0.0066    0    0    0    1    0    1    0    0    17.5504    -7.2325    -17.3725    6.9441;
    4592    40    0.034444    0.109012    0.0076    0    0    0    1    0    1    0    0    15.3138    6.8549    -15.2275    -7.4441;
    431    41    0.000158    0.000672    0.0719    331    331    331    1    0    1    0    0    14.7004    -6.3149    -14.7001    -2.0670;
    3954    41    4.5e-05    8.9e-05    0.002    268    268    268    1    0    1    0    0    -14.7000    -2.3000    14.7001    2.0670;
    1482    42    0.01096    0.020063    0.009    0    0    0    1    0    1    0    0    0.0207    -0.3260    -0.0207    -0.8040;
    2766    42    0.002268    0.008818    0.0099    0    0    0    1    0    1    0    0    -0.0207    -2.0467    0.0207    0.8040;
    2725    43    0.001481    0.006296    0.0039    0    0    0    1    0    1    0    0    3.6002    1.5746    -3.6000    -2.0000;
    3488    44    0.050617    0.137012    0.009    0    0    0    1    0    1    0    0    23.6768    -7.1392    -23.3857    6.9821;
    4324    44    0.074326    0.194507    0.0021    0    0    0    1    0    1    0    0    -10.2822    6.3322    10.3857    -6.2821;
    5094    45    0.000247    0.000741    0    0    0    0    1    0    1    0    0    3.9000    1.7001    -3.9000    -1.7000;
...